LAMMPS (23 Jun 2022 - Update 1)
# LAMMPS input script
# author : Simon Gravelle
# https://lammpstutorials.github.io
# https://lammpstutorials.github.io/tutorials/03-NanoconfinedElectrolyte.html

# Initialisation
boundary p p p
units real
atom_style full
bond_style harmonic
angle_style harmonic
pair_style lj/cut/tip4p/long 1 2 1 1 0.1546 12.0
kspace_style pppm/tip4p 1.0e-4

# System definition
read_data system.data # start from equilibrated configuration at 360 K (for faster sampling)
Reading data file ...
  orthogonal box = (-16.16 -16.16 -40) to (16.16 16.16 40)
  reading atoms ...
  4948 atoms
  reading velocities ...
  4948 velocities
  scanning bonds ...
  scanning angles ...
  reading bonds ...
  2432 bonds
  reading angles ...
  1216 angles
Finding 1-2 1-3 1-4 neighbors ...
     2 = max # of 1-2 neighbors
     1 = max # of 1-3 neighbors
     1 = max # of 1-4 neighbors
     2 = max # of special neighbors
change_box all z final -40 40 # recude the box size
Changing box ...
  orthogonal box = (-16.16 -16.16 -40) to (16.16 16.16 40)

# Simulation settings
include PARM.lammps # use the same parameters
# LAMMPS parameter script
# author : Simon Gravelle
# lammpstutorials.github.io

mass 1 15.9994 # water
mass 2 1.008 # water
mass 3 28.990 # ion
mass 4 35.453 # ion
mass 5 26.9815 # wall

pair_coeff 1 1 0.185199 3.1589 # water
pair_coeff 2 2 0.0 0.0 # water
pair_coeff 3 3 0.04690 2.4299 # ion
pair_coeff 4 4 0.1500 4.04470 # ion
pair_coeff 5 5 11.697 2.574 # wall

bond_coeff 1 0 0.9572 # water

angle_coeff 1 0 104.52 # water

# Define groups
group gH2O type 1 2
3648 atoms in group gH2O
group gNa type 3
10 atoms in group gNa
group gCl type 4
10 atoms in group gCl
group gliquid type 1 2 3 4
3668 atoms in group gliquid
group gwall type 5
1280 atoms in group gwall
region rtop block INF INF INF INF 0 INF
region rbot block INF INF INF INF INF 0
group gtop region rtop
2474 atoms in group gtop
group gbot region rbot
2474 atoms in group gbot
group gwalltop intersect gwall gtop
640 atoms in group gwalltop
group gwallbot intersect gwall gbot
640 atoms in group gwallbot

# Dynamics
fix mymom all momentum 100 linear 1 1 1 # I cancel the whole momuntum every 100 timestep
fix mynve all nve
compute tliq gliquid temp
fix myber1 gliquid temp/berendsen 360 360 100 # increase the temperature for faster sampling
fix_modify myber1 temp tliq
compute twall gwall temp
fix myber2 gwall temp/berendsen 360 360 100 # increase the temperature for faster sampling
fix_modify myber2 temp twall
fix myshk gH2O shake 1.0e-4 200 0 b 1 a 1
       0 = # of size 2 clusters
       0 = # of size 3 clusters
       0 = # of size 4 clusters
    1216 = # of frozen angles
  find clusters CPU = 0.001 seconds
fix myrct all recenter NULL NULL INIT

# Density profile measurement
# Warning : 50000 timesteps is too small to obtain a reasonable
# sampling for Na and Cl, if you want smooth and well averaged profile, run
# longer simulation
compute chunk_water gH2O chunk/atom bin/1d z 0.0 0.2
fix myac1 gH2O ave/chunk 10 10000 100000 chunk_water density/mass file density_water.dat
compute chunk_Na gNa chunk/atom bin/1d z 0.0 0.2
fix myac2 gNa ave/chunk 10 10000 100000 chunk_Na density/mass file density_Na.dat
compute chunk_Cl gCl chunk/atom bin/1d z 0.0 0.2
fix myac3 gCl ave/chunk 10 10000 100000 chunk_Cl density/mass file density_Cl.dat

# msd measurement : see the python script
compute mymsd all msd
variable xymsd equal c_mymsd[1]+c_mymsd[2]
fix myat1 all ave/time 10 100 1000 v_xymsd file msd_xy.dat

# visualisation
write_dump all atom dump.lammpstrj # use this trick to reduce the output size
dump mydmp all xtc 100 dump.xtc # use this trick to reduce the output size
thermo 500

timestep 1.0
run 100000
PPPM initialization ...
  extracting TIP4P info from pair style
  G vector (1/distance) = 0.21991024
  grid = 15 15 30
  stencil order = 5
  estimated absolute RMS force accuracy = 0.028723863
  estimated relative force accuracy = 8.6501061e-05
  3d grid and FFT values/proc = 6292 1800
Generated 10 of 10 mixed pair_coeff terms from geometric mixing rule
  update every 1 steps, delay 10 steps, check yes
Step          Temp          E_pair         E_mol          TotEng         Press
0   356.56621     -121092.1       0             -117126.58     -10048.196
Averages over the last 101 of 201 rows, steps 50000 to 100000:
Temp E_pair E_mol TotEng Press
359.767 -121120 0 -117119 -10091.3
Loop time of 3956.87 on 4 procs for 100000 steps with 4948 atoms

write_data system.data
System init for write_data ...
PPPM initialization ...
  extracting TIP4P info from pair style
  G vector (1/distance) = 0.21991024
  grid = 15 15 30
  stencil order = 5
  estimated absolute RMS force accuracy = 0.028723863
  estimated relative force accuracy = 8.6501061e-05
  3d grid and FFT values/proc = 6292 1800
Generated 10 of 10 mixed pair_coeff terms from geometric mixing rule
