LAMMPS (20 Nov 2019)
# Initialisation

units			metal
atom_style		full
boundary		p p p
pair_style  	airebo 2.5 1 1

# System definition
read_data		sheet_nobond.lammps
  orthogonal box = (-20.9656 -19.439 -40) to (59.0344 60.561 40)
  reading atoms ...
  680 atoms

# step 1 : let us reduce the box size along x and y to match the
# system size
group			carbon type 1
680 atoms in group carbon
variable		xmin equal bound(carbon,xmin)-1.21/2
variable		xmax equal bound(carbon,xmax)+1.21/2
variable		ymin equal bound(carbon,ymin)-1.4/2
variable		ymax equal bound(carbon,ymax)+1.4/2
change_box 		all x final -1.833024 39.901768 y final -0.7 41.822002
  orthogonal box = (-1.83302 -19.439 -40) to (39.9018 60.561 40)
  orthogonal box = (-1.83302 -0.7 -40) to (39.9018 41.822 40)
# let us reduce the box size along z to match the graphite equilibrium size
# let us choose a box size similar to the equilibrium
# interlayer graphene-graphene distance
change_box 		all z final -1.7 1.7
  orthogonal box = (-1.83302 -0.7 -1.7) to (39.9018 41.822 1.7)
# let us replicate the system
replicate		1 1 5
  orthogonal box = (-1.83302 -0.7 -1.7) to (39.9018 41.822 15.3)
  3400 atoms
  replicate CPU = 0.0010495 secs

pair_coeff 		* * CH.airebo C
Reading potential file CH.airebo with DATE: 2011-10-25

# let us impose ambient temperature
velocity		all create 300 48455 mom yes rot yes
fix				mynvt all nvt temp 300 300 0.01
timestep		0.0005

thermo			100
dump 			mydmp all atom 100 dump.lammpstrj

run				2000 # first nvt equilibrium
  update every 1 steps, delay 10 steps, check yes
Step Temp E_pair E_mol TotEng Press
0          300   -25361.031            0   -25229.224   -115945.88
Averages over the last 11 of 21 rows, steps 1000 to 2000:
Temp E_pair E_mol TotEng Press
302.854 -25239.3 0 -25106.3 -111840
Loop time of 57.0997 on 4 procs for 2000 steps with 3400 atoms

unfix			mynvt

# let us use anisotropic npt thermostating
fix				mynpt all npt temp 300 300 0.1 aniso 0 0 1

run				2000 # second npt run
Step Temp E_pair E_mol TotEng Press Volume
2000    292.64924    -25236.46            0   -25107.883   -111638.21    30168.997
Averages over the last 11 of 21 rows, steps 3000 to 4000:
Temp E_pair E_mol TotEng Press Volume
301.325 -25293 0 -25160.6 5.9944 29403
Loop time of 61.9695 on 4 procs for 2000 steps with 3400 atoms

unfix			mynpt

# pressure must be large to have a visible effect
fix				mynpt all npt temp 300 300 0.1 x 1 1 1 y 1 1 1 z 100000 100000 1
run				10000
Step Temp E_pair E_mol TotEng Press Volume
4000    299.58627   -25294.147            0   -25162.522    1407.9624    29414.592
Averages over the last 22 of 43 rows, steps 6100 to 8200:
Temp E_pair E_mol TotEng Press Volume
301.133 -25245.4 0 -25113.1 28385.3 26424.1
