LAMMPS (15 Sep 2022)
# pure bulk water system
# Written by Simon Gravelle
# My personal page : https://simongravelle.github.io/
# My Github account: https://github.com/simongravelle/
# LAMMPS tutorials for beginners: https://lammpstutorials.github.io/

units real
atom_style full
bond_style harmonic
angle_style charmm
dihedral_style charmm
pair_style lj/cut/tip4p/long 1 2 1 1 0.1546 12.0
kspace_style pppm/tip4p 1.0e-4
special_bonds lj 0.0 0.0 0.5

read_data PEG.data # I start from the previously generated PEG
Reading data file ...
  orthogonal box = (-21.642019 -8.1157572 -8.1157572) to (21.642019 8.1157572 8.1157572)
  reading atoms ...
  66 atoms
  reading velocities ...
  66 velocities
  scanning bonds ...
  scanning angles ...
  scanning dihedrals ...
  reading bonds ...
  65 bonds
  reading angles ...
  118 angles
  reading dihedrals ...
  74 dihedrals
Finding 1-2 1-3 1-4 neighbors ...
     4 = max # of 1-2 neighbors
     6 = max # of 1-3 neighbors
    12 = max # of 1-4 neighbors
    14 = max # of special neighbors
change_box all x final -10 10 y final -10 10 z final -10 10 # let us make a smaller cubic box
Changing box ...
  orthogonal box = (-10 -8.1157572 -8.1157572) to (10 8.1157572 8.1157572)
  orthogonal box = (-10 -10 -8.1157572) to (10 10 8.1157572)
  orthogonal box = (-10 -10 -10) to (10 10 10)
molecule h2omol H2OTip4p.txt
Read molecule template h2omol:
  1 molecules
  0 fragments
  3 atoms with max type 2
  2 bonds with max type 1
  1 angles with max type 1
  0 dihedrals with max type 0
  0 impropers with max type 0
create_atoms 0 random 300 45615 NULL mol h2omol 454756 # let us add some water molecules
Created 900 atoms

include PARM.lammps
# Mass

mass 		1 15.9994 # H2O O
mass 		2 1.008 # H2O H
mass 		3 12.011 # CC32A
mass 		4 15.9994 # OC30A
mass 		5 1.008 # HCA2
mass 		6 15.9994 # OC311
mass 		7 1.008 # HCP1

# Pair Coeff

pair_coeff 	1 1 0.185199 3.1589
pair_coeff 	2 2 0.0 0.0
pair_coeff 	3 3 0.056 3.58141
pair_coeff 	4 4 0.100 2.93997
pair_coeff 	5 5 0.035 2.38761
pair_coeff 	6 6 0.192 3.14487
pair_coeff 	7 7 0.046 0.40001

# Bond coeff

bond_coeff 	1 0 0.9572
bond_coeff 	2 222.35 1.5300
bond_coeff 	3 308.79 1.1111
bond_coeff 	4 359.76 1.1415
bond_coeff 	5 427.715 1.1420
bond_coeff 	6 544.635 0.9600

# Angle coeff

angle_coeff 	1 0 104.52 0 0
angle_coeff	2 50.0000 109.0000 0.0000 0.0000
angle_coeff	3 26.5000 110.1000 22.5300 2.179
angle_coeff	4 45.0000 111.5000 0.0000 0.0000
angle_coeff	5 13.0258 109.4000 0.0000 0.0000
angle_coeff	6 35.5000 109.0000 5.4000 1.802
angle_coeff	7 55.0000 108.8900 0.0000 0.0000
angle_coeff	8 75.7000 110.1000 0.0000 0.0000
angle_coeff	9 95.0000 109.7000 0.0000 0.0000

# Dihedral coeff
# weighting factor put to 0, possibly wrong

dihedral_coeff	1 0.57 1 0 0
dihedral_coeff	2 0.29 2 0 0
dihedral_coeff	3 0.43 3 0 0
dihedral_coeff	4 0.59 1 180 0
dihedral_coeff	5 1.16 2 0 0
dihedral_coeff	6 0.12 1 0 0
dihedral_coeff	7 0.42 2 0 0
dihedral_coeff	8 0.29 3 0 0
dihedral_coeff	9 2.87 1 180 0
dihedral_coeff	10 0.03 2 0 0
dihedral_coeff	11 0.23 3 0 0
dihedral_coeff	12 1.36 1 180 0
dihedral_coeff	13 0.16 2 0 0
dihedral_coeff	14 1.01 3 0 0

group H2O type 1 2
900 atoms in group H2O
group PEG type 3 4 5 6 7
66 atoms in group PEG

delete_atoms overlap 2 H2O H2O mol yes # delete the H2O overlaping with others H2O
System init for delete_atoms ...
PPPM initialization ...
  extracting TIP4P info from pair style
  G vector (1/distance) = 0.23018493
  grid = 10 10 10
  stencil order = 5
  estimated absolute RMS force accuracy = 0.023797358
  estimated relative force accuracy = 7.1665037e-05
  3d grid and FFT values/proc = 2601 300
Generated 21 of 21 mixed pair_coeff terms from geometric mixing rule
Deleted 681 atoms, new total = 285
Deleted 454 bonds, new total = 211
Deleted 227 angles, new total = 191
Deleted 0 dihedrals, new total = 74
delete_atoms overlap 2 H2O PEG mol yes # delete the H2O overlaping with PEG
System init for delete_atoms ...
PPPM initialization ...
  extracting TIP4P info from pair style
  G vector (1/distance) = 0.22290507
  grid = 9 9 9
  stencil order = 5
  estimated absolute RMS force accuracy = 0.017398335
  estimated relative force accuracy = 5.2394569e-05
  3d grid and FFT values/proc = 2304 243
Generated 21 of 21 mixed pair_coeff terms from geometric mixing rule
Deleted 30 atoms, new total = 255
Deleted 20 bonds, new total = 191
Deleted 10 angles, new total = 181
Deleted 0 dihedrals, new total = 74

# Let us impose a strong damping to the system
# This is equivalent to performing an energy minimisation
fix mynve all nve/limit 0.1
fix myber all temp/berendsen 1 1 1
fix myshk H2O shake 1.0e-5 200 0 b 1 a 1 mol h2omol
Finding SHAKE clusters ...
       0 = # of size 2 clusters
       0 = # of size 3 clusters
       0 = # of size 4 clusters
      63 = # of frozen angles
  find clusters CPU = 0.000 seconds
dump mydmp all atom 1000 dump.init.lammpstrj
thermo 1000
timestep 0.5 # reduce a bit the timestep to avoid "out of range atom error"
run 1000
PPPM initialization ...
  extracting TIP4P info from pair style
  G vector (1/distance) = 0.22290364
  grid = 9 9 9
  stencil order = 5
  estimated absolute RMS force accuracy = 0.015923206
  estimated relative force accuracy = 4.7952263e-05
  3d grid and FFT values/proc = 2304 243
Generated 21 of 21 mixed pair_coeff terms from geometric mixing rule
Step          Temp          E_pair         E_mol          TotEng         Press
0   93.371919     -7.0967105      106.30282      152.36598      1495.0354
Loop time of 0.617167 on 4 procs for 1000 steps with 255 atoms

# let us equilibrate at T=300 K and p=1 atm
unfix myber
unfix mynve
fix mynpt all npt temp 300 300 100 iso 1 1 1000
run 10000
PPPM initialization ...
  extracting TIP4P info from pair style
  G vector (1/distance) = 0.22290364
  grid = 9 9 9
  stencil order = 5
  estimated absolute RMS force accuracy = 0.015923206
  estimated relative force accuracy = 4.7952263e-05
  3d grid and FFT values/proc = 2304 243
Generated 21 of 21 mixed pair_coeff terms from geometric mixing rule
Step          Temp          E_pair         E_mol          TotEng         Press          Volume
1000   1.1695413     -262.68802      55.652199     -206.36996     -1834.8523      8000
Averages over the last 6 of 11 rows, steps 6000 to 11000:
Temp E_pair E_mol TotEng Press Volume
302.2 -523.067 71.2375 -279.777 -876.557 3149.04
Loop time of 15.114 on 4 procs for 10000 steps with 255 atoms

# Let us replicate the system
# and equilibrate it further
unfix mynpt
unfix myshk # must be unfixed before replicate
undump mydmp
replicate 2 2 2
Replicating atoms ...
  orthogonal box = (-6.8884268 -6.8884268 -6.8884268) to (20.665281 20.665281 20.665281)
  2040 atoms
  1528 bonds
  1448 angles
  592 dihedrals
Finding 1-2 1-3 1-4 neighbors ...
     4 = max # of 1-2 neighbors
     6 = max # of 1-3 neighbors
    12 = max # of 1-4 neighbors
    14 = max # of special neighbors
  replicate CPU = 0.002 seconds
fix myshk H2O shake 1.0e-5 200 0 b 1 a 1 mol h2omol
Finding SHAKE clusters ...
       0 = # of size 2 clusters
       0 = # of size 3 clusters
       0 = # of size 4 clusters
     504 = # of frozen angles
  find clusters CPU = 0.000 seconds
fix mynpt all npt temp 300 300 100 iso 1 1 1000
dump mydmp all atom 1000 dump.lammpstrj
run 5000
PPPM initialization ...
  extracting TIP4P info from pair style
  G vector (1/distance) = 0.23590774
  grid = 15 15 15
  stencil order = 5
  estimated absolute RMS force accuracy = 0.011797195
  estimated relative force accuracy = 3.5526903e-05
  3d grid and FFT values/proc = 4312 960
Generated 21 of 21 mixed pair_coeff terms from geometric mixing rule
Step          Temp          E_pair         E_mol          TotEng         Press          Volume
11000   340.25735     -4462.0944      710.0739      -2195.1582     -1168.3935      20918.962
Loop time of 76.3519 on 4 procs for 5000 steps with 2040 atoms

# final run with larger timestep
timestep 1.0
run 30000 # make a longer run to propertly mix the system
PPPM initialization ...
  extracting TIP4P info from pair style
  G vector (1/distance) = 0.23622811
  grid = 15 15 15
  stencil order = 5
  estimated absolute RMS force accuracy = 0.011626814
  estimated relative force accuracy = 3.5013806e-05
  3d grid and FFT values/proc = 4312 960
Generated 21 of 21 mixed pair_coeff terms from geometric mixing rule
Step          Temp          E_pair         E_mol          TotEng         Press          Volume
16000   305.08124     -4764.1423      629.4046      -2738.8252     -1236.2958      20618.486
Averages over the last 16 of 31 rows, steps 31000 to 46000:
Temp E_pair E_mol TotEng Press Volume
303.157 -5054.25 725.038 -2942.1 3.50555 20189
Loop time of 524.688 on 4 procs for 30000 steps with 2040 atoms

write_data final.data
System init for write_data ...
PPPM initialization ...
  extracting TIP4P info from pair style
  G vector (1/distance) = 0.22110676
  grid = 12 12 12
  stencil order = 5
  estimated absolute RMS force accuracy = 0.031582751
  estimated relative force accuracy = 9.5110515e-05
  3d grid and FFT values/proc = 3211 432
Generated 21 of 21 mixed pair_coeff terms from geometric mixing rule
ature
ERROR: Unknown command: ature (../input.cpp:303)
Last command: ature
