LAMMPS (23 Jun 2022 - Update 1)
# LAMMPS input script
# author : Simon Gravelle
# https://lammpstutorials.github.io
# https://lammpstutorials.github.io/tutorials/03-NanoconfinedElectrolyte.html

# Initialisation
boundary p p p
units real
atom_style full
bond_style harmonic
angle_style harmonic
pair_style lj/cut/tip4p/long 1 2 1 1 0.1546 12.0
kspace_style pppm/tip4p 1.0e-4

# System definition
read_data system.data # start from equilibrium configuration
Reading data file ...
  orthogonal box = (-16.16 -16.16 -52.52) to (16.16 16.16 52.52)
  reading atoms ...
  4948 atoms
  reading velocities ...
  4948 velocities
  scanning bonds ...
  scanning angles ...
  reading bonds ...
  2432 bonds
  reading angles ...
  1216 angles
Finding 1-2 1-3 1-4 neighbors ...
     2 = max # of 1-2 neighbors
     1 = max # of 1-3 neighbors
     1 = max # of 1-4 neighbors
     2 = max # of special neighbors
change_box all z final -40 40
Changing box ...
  orthogonal box = (-16.16 -16.16 -40) to (16.16 16.16 40)

# Simulation settings
include PARM.lammps
# LAMMPS parameter script
# author : Simon Gravelle
# lammpstutorials.github.io

mass 1 15.9994 # water
mass 2 1.008 # water
mass 3 28.990 # ion
mass 4 35.453 # ion
mass 5 26.9815 # wall

pair_coeff 1 1 0.185199 3.1589 # water
pair_coeff 2 2 0.0 0.0 # water
pair_coeff 3 3 0.04690 2.4299 # ion
pair_coeff 4 4 0.1500 4.04470 # ion
pair_coeff 5 5 11.697 2.574 # wall

bond_coeff 1 0 0.9572 # water

angle_coeff 1 0 104.52 # water

# Groups
group gH2O type 1 2
3648 atoms in group gH2O
group gNa type 3
10 atoms in group gNa
group gCl type 4
10 atoms in group gCl
group gliquid type 1 2 3 4
3668 atoms in group gliquid
group gwall type 5
1280 atoms in group gwall
region rtop block INF INF INF INF 0 INF
region rbot block INF INF INF INF INF 0
group gtop region rtop
2490 atoms in group gtop
group gbot region rbot
2458 atoms in group gbot
group gwalltop intersect gwall gtop
640 atoms in group gwalltop
group gwallbot intersect gwall gbot
640 atoms in group gwallbot

# Dynamics
fix mynve all nve
compute tliq gliquid temp/partial 0 1 1 # ignore the x direction during thermalisation
fix myber1 gliquid temp/berendsen 300 300 100
fix_modify myber1 temp tliq
compute twall gwall temp # walls wont move, they can be thermalised over all directions
fix myber2 gwall temp/berendsen 300 300 100
fix_modify myber2 temp twall
fix myshk gH2O shake 1.0e-4 200 0 b 1 a 1
       0 = # of size 2 clusters
       0 = # of size 3 clusters
       0 = # of size 4 clusters
    1216 = # of frozen angles
  find clusters CPU = 0.001 seconds
# no need for recentering as wall are fixed here
fix myspring1 gwalltop spring/self 10.0 xyz # maintain top wall in place
fix myspring2 gwallbot spring/self 10.0 xyz # maintain bottom wall in place

#  Add force along x to the fluid
fix myadf gliquid addforce 1e-3 0.0 0.0 # 1e-3 kcal/mol/A is a
# resonable choice that has been calibrated previously, ask me about it if you
# are interested in the calibration protocol, but basicaly you have to try
# several values for the force, and pick one small enough that the linear responce remains
# valid, and large enough so that you can differenciate the signal from the noise

# vizualisation
dump mydmp all atom 5000 dump.lammpstrj
thermo 500
thermo_modify temp tliq

compute cc1 gliquid chunk/atom bin/1d z 0.0 1.0
fix myac1 gliquid ave/chunk 10 15000 200000 cc1 vx file vel.profile.dat # make sure to ignore the beginning of a simulation

timestep 1.0
run 200000
PPPM initialization ...
  extracting TIP4P info from pair style
  G vector (1/distance) = 0.21991024
  grid = 15 15 30
  stencil order = 5
  estimated absolute RMS force accuracy = 0.028723863
  estimated relative force accuracy = 8.6501061e-05
  3d grid and FFT values/proc = 6292 1800
Generated 10 of 10 mixed pair_coeff terms from geometric mixing rule
  update every 1 steps, delay 10 steps, check yes
Step          Temp          E_pair         E_mol          TotEng         Press
0   307.42194     -122596.33      0             -121098.99     -11553.136
Averages over the last 201 of 401 rows, steps 100000 to 200000:
Temp E_pair E_mol TotEng Press
300.315 -122441 0 -120978 -11744.1
Loop time of 7588.79 on 4 procs for 200000 steps with 4948 atoms

write_data system.data
System init for write_data ...
PPPM initialization ...
  extracting TIP4P info from pair style
  G vector (1/distance) = 0.21991024
  grid = 15 15 30
  stencil order = 5
  estimated absolute RMS force accuracy = 0.028723863
  estimated relative force accuracy = 8.6501061e-05
  3d grid and FFT values/proc = 6292 1800
Generated 10 of 10 mixed pair_coeff terms from geometric mixing rule
